Power Flow/code/IEEE14data.m
%this code prepare the data of IEEE 14-bus system
%and calculate the Admittance matrix
%Yaze Li
clear all; close all; clc;
%% IEEE 14 bus system data
% 1: SW, 2: PV, 3: PQ
%         Bus No  Vm  Theta  Pg    Qg     P1     Q1     Qmax    Qmin  Type
busdata= [ 1    1.060   0     0    0     0       0       0       0     1;
           2    1.045   0   40.0 42.4  21.7  12.7      -40     50     2;
           3    1.010   0     0  23.4  94.2  19.0       0      40     2;
           4    1.019   0     0    0    47.8   -3.9      0       0     3;
           5    1.020   0     0    0     7.6     1.6     0       0     3;
           6    1.070   0     0  12.2  11.2   7.5    -6.0     24.0    2;
           7    1.062   0     0    0      0      0      0       0      3;
           8    1.090   0     0  17.4    0      0     -6.0    24.0    2;
           9    1.056   0     0    0      29.5   16.6    0       0     3;
           10   1.051   0     0    0      9.0     5.8    0       0     3;
           11   1.057   0     0    0      3.5     1.8    0       0     3;
           12   1.055   0     0    0      6.1     1.6    0       0     3;
           13   1.050   0     0    0      13.5    5.8    0       0     3;
           14   1.036   0     0    0      14.9    5.0    0       0     3];
mpc.bus = [
	1	3	0	0	0	0	1	1.06	0	0	1	1.06	0.94;
	2	2	21.7	12.7	0	0	1	1.045	-4.98	0	1	1.06	0.94;
	3	2	94.2	19	0	0	1	1.01	-12.72	0	1	1.06	0.94;
	4	1	47.8	-3.9	0	0	1	1.019	-10.33	0	1	1.06	0.94;
	5	1	7.6	1.6	0	0	1	1.02	-8.78	0	1	1.06	0.94;
	6	2	11.2	7.5	0	0	1	1.07	-14.22	0	1	1.06	0.94;
	7	1	0	0	0	0	1	1.062	-13.37	0	1	1.06	0.94;
	8	2	0	0	0	0	1	1.09	-13.36	0	1	1.06	0.94;
	9	1	29.5	16.6	0	19	1	1.056	-14.94	0	1	1.06	0.94;
	10	1	9	5.8	0	0	1	1.051	-15.1	0	1	1.06	0.94;
	11	1	3.5	1.8	0	0	1	1.057	-14.79	0	1	1.06	0.94;
	12	1	6.1	1.6	0	0	1	1.055	-15.07	0	1	1.06	0.94;
	13	1	13.5	5.8	0	0	1	1.05	-15.16	0	1	1.06	0.94;
	14	1	14.9	5	0	0	1	1.036	-16.04	0	1	1.06	0.94;
];
busdata(:,3) = mpc.bus(:,9)/180*pi;
% Susceptance
Shuntdata=[0 0 0 0 0 0 0 0 sqrt(-1)*0.190 0 0 0 0 0]' ;

%% Transmission Line Data for IEEE 14 bus system
%         Line No   From to    R          X        B/2      T    
linedata= [ 1        1   2    0.01938   0.05917  0.02640    1;
            2        2   3    0.04699   0.19797  0.02190    1;
            3        2   4    0.05811   0.17632  0.01870    1;
            4        1   5    0.05403   0.22304  0.02460    1;
            5        2   5    0.05695   0.17388  0.01700    1;
            6        3   4    0.06701   0.17103  0.01730    1;
            7        4   5    0.01335   0.04211  0.00640    1;
            8        5   6    0.00000   0.25202  0.00000   0.932;
            9        4   7    0.00000   0.20912  0.00000   0.978;
            10       7   8    0.00000   0.17615  0.00000    1;
            11       4   9    0.00000   0.55618  0.00000    0.969;
            12       7   9    0.00000   0.11001  0.00000    1;
            13       9   10   0.03181   0.08450  0.00000    1;
            14       6   11   0.09498   0.19890  0.00000    1;
            15       6   12   0.12291   0.25581  0.00000    1;
            16       6   13   0.06615   0.13027  0.00000    1;
            17       9   14   0.12711   0.27038  0.00000    1;
            18      10   11   0.08205   0.19207  0.00000    1;
            19      12   13   0.22092   0.19988  0.00000    1;
            20      13   14   0.17093   0.34802  0.00000    1];
        
%% calculate Ybus
fb = linedata(:,2);
tb = linedata(:,3);
R =  linedata(:,4);
X =  linedata(:,5);
B = linedata(:,6)*2;
T =  linedata(:,7);
z =  R+sqrt(-1)*X;
y = 1./z;
b= sqrt(-1)*B;
nbus = max(max(fb),max(tb)); % no of bus
nbranch = length(fb); % # of branch
Y = zeros(nbus,nbus); % initialize Ybus

%formation of offdiagonal element
for k=1: nbranch
    Y(fb(k),tb(k))= Y(fb(k),tb(k))-y(k)/T(k);
    Y(tb(k),fb(k))=Y(fb(k),tb(k));
end
%formation of diagonal element
for m=1 : nbus
    for n = 1:nbranch
        if fb(n)== m
            Y(m,m)= Y(m,m)+(y(n)/(T(k)^2))+b(n);
        elseif tb(n)== m
            Y(m,m)= Y(m,m)+y(n)+b(n);
        end
    end 
end

%entry of shuntdata in IEEE 14 Bus system
 for i = 1:14
      Y(i,i)= Y(i,i)+ Shuntdata(i);  
 end